4、CSEE-PFO/MATLAB/PFO2.m
function mpc = PFO2
%   MATPOWER 

%% MATPOWER Case Format : Version 2 
mpc.version = '2';

%%-----  Power Flow Data  -----%% 
%% system MVA base
mpc.baseMVA = 100; 

%% bus data 
%	bus_i	type	Pd	Qd	Gs	Bs	area	Vm	Va	baseKV	zone	Vmax	Vmin
mpc.bus = [
    1    1    0    0    0    0        1    1.004131213457249    -1.252374274326259    1    1    1.06    0.94;
    2    1    0    0    0    0        1    1.00336454491347    -0.1931955498187074    1    1    1.06    0.94;
    3    1    0    0    0    0        1    1.003970744001457    -0.5110526566636736    1    1    1.06    0.94;
    4    1    0    0    0    0        1    1.003875009803893    -0.890001787246523    1    1    1.06    0.94;
    5    1    0    0    0    0        1    1.003894013542004    -0.9262314483303778    1    1    1.06    0.94;
    6    1    0    0    0    0        1    1.003248006596498    -1.476764340176555    1    1    1.06    0.94;
    7    1    0    0    0    0        1    1.003248006596498    -1.476764340176555    1    1    1.06    0.94;
    8    1    0    0    0    1855        1    1.004189196387912    -1.462616272517319    1    1    1.06    0.94;
    9    1    0    0    0    1855        1    1.000062495037178    0.2041382266248847    1    1    1.06    0.94;
    10    1    260    70    0    0        1    0.9913992272273053    3.429677797347643    1    1    1.06    0.94;
    11    1    260    70    0    0        1    0.9936555513251382    2.02237063085501    1    1    1.06    0.94;
    12    1    50    32    0    0        1    0.9995362971132676    -1.653581393147545    1    1    1.06    0.94;
    13    1    230    30    0    0        1    0.998878571652848    -2.74424704622749    1    1    1.06    0.94;
    14    1    230    30    0    0        1    0.9988977090133796    -2.780405941983482    1    1    1.06    0.94;
    15    1    400    70    0    0        1    0.9912582790790619    -4.728511048275032    1    1    1.06    0.94;
    16    1    400    70    0    0        1    0.9912582790790619    -4.728511048275032    1    1    1.06    0.94;
    17    1    0    0    0    0        1    0.9930583458817847    4.965361487862181    1    1    1.06    0.94;
    18    1    0    0    0    0        1    0.9930583458817847    4.965361487862181    1    1    1.06    0.94;
    19    1    0    0    0    0        1    0.9917183525276296    4.978434300405146    1    1    1.06    0.94;
    20    1    0    0    0    0        1    0.9930583458817847    4.965361487862181    1    1    1.06    0.94;
    21    1    0    0    0    0        1    0.9944987682076823    3.559010452762336    1    1    1.06    0.94;
    22    1    0    0    0    0        1    0.9944987682076823    3.559010452762336    1    1    1.06    0.94;
    23    1    0    0    0    0        1    0.9944987682076823    3.559010452762336    1    1    1.06    0.94;
    24    1    0    0    0    0        1    0.9900353300380419    3.837647308246808    1    1    1.06    0.94;
    25    1    0    0    0    0        1    0.9900353300380419    3.837647308246808    1    1    1.06    0.94;
    26    1    0    0    0    0        1    0.9900353300380419    3.837647308246808    1    1    1.06    0.94;
    27    1    0    0    0    0        1    0.9924312906957152    2.306645937163849    1    1    1.06    0.94;
    28    1    0    0    0    0        1    0.9924312906957152    2.306645937163849    1    1    1.06    0.94;
    29    1    0    0    0    0        1    0.9924312906957152    2.306645937163849    1    1    1.06    0.94;
    30    1    0    0    0    0        1    0.9990557936968142    -1.69982685017908    1    1    1.06    0.94;
    31    1    0    0    0    0        1    0.9985258654591856    -2.953863496339115    1    1    1.06    0.94;
    32    1    0    0    0    0        1    0.9985450259398102    -2.990014374586265    1    1    1.06    0.94;
    33    1    0    0    0    0        1    0.9903650171318983    -5.099412866379056    1    1    1.06    0.94;
    34    1    0    0    0    0        1    0.9903650171318983    -5.099412866379056    1    1    1.06    0.94;
    35    1    0    0    0    20        1    0.9936356666324795    9.033387211969266    1    1    1.06    0.94;
    36    1    0    0    0    0        1    0.9865596624453018    9.062614015733427    1    1    1.06    0.94;
    37    1    0    0    0    0        1    0.9865596624453018    9.062614015733427    1    1    1.06    0.94;
    38    1    0    0    0    20        1    0.9936356666324795    9.033387211969266    1    1    1.06    0.94;
    39    1    0    0    0    0        1    0.9851925891671054    9.086935327139223    1    1    1.06    0.94;
    40    1    0    0    0    0        1    0.9851925891671054    9.086935327139223    1    1    1.06    0.94;
    41    1    0    0    0    0        1    0.9865596624453018    9.062614015733427    1    1    1.06    0.94;
    42    1    0    0    0    20        1    0.9936356666324795    9.033387211969266    1    1    1.06    0.94;
    43    1    0    0    0    0        1    0.9893643203599359    7.638701353573618    1    1    1.06    0.94;
    44    1    0    0    0    0        1    0.9893643203599359    7.638701353573618    1    1    1.06    0.94;
    45    1    0    0    0    0        1    0.9893643203599359    7.638701353573618    1    1    1.06    0.94;
    46    1    0    0    0    0        1    0.9893643203599359    7.638701353573618    1    1    1.06    0.94;
    47    1    0    0    0    0        1    0.9893643203599359    7.638701353573618    1    1    1.06    0.94;
    48    1    0    0    0    0        1    0.9893643203599359    7.638701353573618    1    1    1.06    0.94;
    49    1    0    0    0    0        1    0.9325486363057969    -8.432587628680661    1    2    1.06    0.94;
    50    1    0    0    0    0        1    0.9546005270954778    6.619906325647838    1    2    1.06    0.94;
    51    1    0    0    0    0        1    0.9325486363057969    -8.432587628680661    1    2    1.06    0.94;
    52    1    0    0    0    0        1    0.9546005270954778    6.619906325647838    1    2    1.06    0.94;
    53    1    0    0    0    0        1    0.98868952556931    9.754883126645796    1    1    1.06    0.94;
    54    1    0    0    0    0        1    0.98868952556931    9.754883126645796    1    1    1.06    0.94;
    55    1    0    0    0    0        1    0.98868952556931    9.754883126645796    1    1    1.06    0.94;
    56    1    0    0    0    0        1    0.98868952556931    9.754883126645796    1    1    1.06    0.94;
    57    1    0    0    0    0        1    0.98868952556931    9.754883126645796    1    1    1.06    0.94;
    58    1    0    0    0    0        1    0.98868952556931    9.754883126645796    1    1    1.06    0.94;
    59    3    0    0    0    0        1    1    0    1    3    1.06    0.94;
    60    1    0    0    0    0        1    0.9900353300380419    3.837647308246808    1    1    1.06    0.94;
    61    1    0    0    0    0        1    0.9900353300380419    3.837647308246808    1    1    1.06    0.94;
    62    1    0    0    0    0        1    0.9900353300380419    3.837647308246808    1    1    1.06    0.94;
    63    1    0    0    0    0        1    0.9924312906957152    2.306645937163849    1    1    1.06    0.94;
    64    1    0    0    0    0        1    0.9924312906957152    2.306645937163849    1    1    1.06    0.94;
    65    1    0    0    0    0        1    0.9924312906957152    2.306645937163849    1    1    1.06    0.94;
    66    1    0    0    0    0        1    0.9990557936968142    -1.69982685017908    1    1    1.06    0.94;
    67    1    0    0    0    0        1    0.9985258654591856    -2.953863496339115    1    1    1.06    0.94;
    68    1    0    0    0    0        1    0.9985450259398102    -2.990014374586265    1    1    1.06    0.94;
    69    1    0    0    0    0        1    0.9903650171318983    -5.099412866379056    1    1    1.06    0.94;
    70    1    0    0    0    0        1    0.9903650171318983    -5.099412866379056    1    1    1.06    0.94;
    71    2    0    0    0    0        1    0.9999999972813058    8.655735848505744    1    1    1.06    0.94;
    72    2    0    0    0    0        1    0.9999999972813058    8.655735848505744    1    1    1.06    0.94;
    73    2    0    0    0    0        1    0.9999999868986932    6.735246676569381    1    1    1.06    0.94;
    74    2    0    0    0    0        1    1.000000064425066    8.619332416856725    1    1    1.06    0.94;
    75    2    0    0    0    0        1    1.000000014788321    6.698880533974514    1    1    1.06    0.94;
    76    3    0    0    0    0        1    1    0    1    1    1.06    0.94;
    77    2    0    0    0    0        1    1.000000014788321    6.698880533974514    1    1    1.06    0.94;
    78    1    0    0    0    0        1    0.9921350365424132    12.18274515192315    1    1    1.06    0.94;
    79    1    0    0    0    0        1    0.985026288144489    12.25749939965155    1    1    1.06    0.94;
    80    1    0    0    0    0        1    0.985026288144489    12.25749939965155    1    1    1.06    0.94;
    81    1    0    0    0    0        1    0.9921350365424132    12.18274515192315    1    1    1.06    0.94;
    82    1    0    0    0    0        1    0.9836527848321448    12.29072955095893    1    1    1.06    0.94;
    83    1    0    0    0    0        1    0.9836527848321448    12.29072955095893    1    1    1.06    0.94;
    84    1    0    0    0    0        1    0.985026288144489    12.25749939965155    1    1    1.06    0.94;
    85    1    0    0    0    0        1    0.9921350365424132    12.18274515192315    1    1    1.06    0.94;
];
%% generator data
%	bus	Pg	Qg	Qmax	Qmin	Vg	mBase	status	Pmax	Pmin	Pc1	Pc2	Qc1min	Qc1max	Qc2min	Qc2max	ramp_agc	ramp_10	ramp_30	ramp_q	apf
mpc.gen = [
  53  200  0  0  0  0.98868952556931  100  1  400  0   0 0 0 0 0 0 0 0 0 0 0;
  54  200  0  0  0  0.98868952556931  100  1  400  0   0 0 0 0 0 0 0 0 0 0 0;
  55  200  0  0  0  0.98868952556931  100  1  400  0   0 0 0 0 0 0 0 0 0 0 0;
  56  200  0  0  0  0.98868952556931  100  1  400  0   0 0 0 0 0 0 0 0 0 0 0;
  57  200  0  0  0  0.98868952556931  100  1  400  0   0 0 0 0 0 0 0 0 0 0 0;
  58  200  0  0  0  0.98868952556931  100  1  400  0   0 0 0 0 0 0 0 0 0 0 0;
  59  -3563.0997  -56.1523  99999  -9999  1  100  1  9999  0   0 0 0 0 0 0 0 0 0 0 0;
  71  500  25.8935  522  -374  0.9999999972813058  100  1  660  0   0 0 0 0 0 0 0 0 0 0 0;
  72  500  25.8935  522  -374  0.9999999972813058  100  1  660  0   0 0 0 0 0 0 0 0 0 0 0;
  73  400  11.6543  510  -294  0.9999999868986932  100  1  660  0   0 0 0 0 0 0 0 0 0 0 0;
  74  500  25.8359  510  -294  1.000000064425066  100  1  660  0   0 0 0 0 0 0 0 0 0 0 0;
  75  400  11.5968  300  -200  1.000000014788321  100  1  660  0   0 0 0 0 0 0 0 0 0 0 0;
  76  48.6198  -11.7052  300  -200  1  100  1  660  0   0 0 0 0 0 0 0 0 0 0 0;
  77  400  11.5968  510  -294  1.000000014788321  100  1  660  0   0 0 0 0 0 0 0 0 0 0 0;
  78  200  0  0  0  0.9921350365424132  100  1  200  0   0 0 0 0 0 0 0 0 0 0 0;
  79  200  0  0  0  0.985026288144489  100  1  200  0   0 0 0 0 0 0 0 0 0 0 0;
  80  200  0  0  0  0.985026288144489  100  1  200  0   0 0 0 0 0 0 0 0 0 0 0;
  81  200  0  0  0  0.9921350365424132  100  1  200  0   0 0 0 0 0 0 0 0 0 0 0;
  82  200  0  0  0  0.9836527848321448  100  1  200  0   0 0 0 0 0 0 0 0 0 0 0;
  83  200  0  0  0  0.9836527848321448  100  1  200  0   0 0 0 0 0 0 0 0 0 0 0;
  84  200  0  0  0  0.985026288144489  100  1  200  0   0 0 0 0 0 0 0 0 0 0 0;
  85  200  0  0  0  0.9921350365424132  100  1  200  0   0 0 0 0 0 0 0 0 0 0 0;
49    -1850    -638.4881591796875    9999  -9999  0.98868952556931  100  1  -9999  0   0 0 0 0 0 0 0 0 0 0 0;
50    1781.549926757812    -655.809326171875    9999  -9999  0.98868952556931  100  1  -9999  0   0 0 0 0 0 0 0 0 0 0 0;
51    -1850    -638.4881591796875    9999  -9999  0.98868952556931  100  1  -9999  0   0 0 0 0 0 0 0 0 0 0 0;
52    1781.549926757812    -655.809326171875    9999  -9999  0.98868952556931  100  1  -9999  0   0 0 0 0 0 0 0 0 0 0 0;
];
%% branch data
%	fbus	tbus	r	x	b	rateA	rateB	rateC	ratio	angle	status	angmin	angmax   
mpc.branch = [
  1  6  0.00011  0.00199  0.27364  967  967  967  0    0  1  -360  360  ;
  1  6  0.00011  0.00199  0.27364  967  967  967  0    0  1  -360  360  ;
  1  7  0.00011  0.00199  0.27364  967  967  967  0    0  1  -360  360  ;
  1  7  0.00011  0.00199  0.27364  967  967  967  0    0  1  -360  360  ;
  2  1  0.00017  0.00279  1.88286  4000  4000  4000  0    0  1  -360  360  ;
  2  1  0.00014  0.00277  1.88222  4000  4000  4000  0    0  1  -360  360  ;
  3  1  0.00017  0.00279  1.88286  4000  4000  4000  0    0  1  -360  360  ;
  3  1  0.00014  0.00277  1.88222  4000  4000  4000  0    0  1  -360  360  ;
  4  1  6.999999999999999e-05  0.00106  0.74212  1600  1600  1600  0    0  1  -360  360  ;
  4  1  6.999999999999999e-05  0.00111  0.75338  1600  1600  1600  0    0  1  -360  360  ;
  5  1  6.999999999999999e-05  0.00101  0.69728  1600  1600  1600  0    0  1  -360  360  ;
  5  1  6.999999999999999e-05  0.00103  0.71478  1600  1600  1600  0    0  1  -360  360  ;
  8  1  0  0.0001  0  0  0  0  0    0  1  -360  360  ;
  10  17  0.00186  0.01307  0.04824  1596  1596  1596  0    0  1  -360  360  ;
  10  17  0.00186  0.01307  0.04824  1596  1596  1596  0    0  1  -360  360  ;
  10  18  0.00186  0.01307  0.04824  1596  1596  1596  0    0  1  -360  360  ;
  10  18  0.00186  0.01307  0.04824  1596  1596  1596  0    0  1  -360  360  ;
  10  19  0.00186  0.01307  0.04824  1596  1596  1596  0    0  1  -360  360  ;
  10  19  0.00186  0.01307  0.04824  1596  1596  1596  0    0  1  -360  360  ;
  10  20  0.00186  0.01307  0.04824  1596  1596  1596  0    0  1  -360  360  ;
  10  20  0.00186  0.01307  0.04824  1596  1596  1596  0    0  1  -360  360  ;
  11  21  0.00186  0.01307  0.04824  1596  1596  1596  0    0  1  -360  360  ;
  11  21  0.00186  0.01307  0.04824  1596  1596  1596  0    0  1  -360  360  ;
  11  22  0.00186  0.01307  0.04824  1596  1596  1596  0    0  1  -360  360  ;
  11  22  0.00186  0.01307  0.04824  1596  1596  1596  0    0  1  -360  360  ;
  11  23  0.00186  0.01307  0.04824  1596  1596  1596  0    0  1  -360  360  ;
  11  23  0.00186  0.01307  0.04824  1596  1596  1596  0    0  1  -360  360  ;
  59  9  0  0.0001  0  0  0  0  0    0  1  -360  360  ;
  8  49  0  0.006    0    3000  3000  3000  1.023766043526857    0  1  -360  360  
  8  51  0  0.006    0    3000  3000  3000  1.023766043526857    0  1  -360  360  
  9  50  0  0.006    0    3000  3000  3000  0.9979703776041905    0  1  -360  360  
  9  52  0  0.006    0    3000  3000  3000  0.9979703776041905    0  1  -360  360  
  17  35  0  0.035    0    300  300  300  1    0  1  -360  360  
  17  36  0  0.035    0    300  300  300  1    0  1  -360  360  
  18  37  0  0.035    0    300  300  300  1    0  1  -360  360  
  18  38  0  0.035    0    300  300  300  1    0  1  -360  360  
  19  39  0  0.035    0    300  300  300  1    0  1  -360  360  
  19  40  0  0.035    0    300  300  300  1    0  1  -360  360  
  20  41  0  0.035    0    300  300  300  1    0  1  -360  360  
  20  42  0  0.035    0    300  300  300  1    0  1  -360  360  
  21  43  0  0.035    0    300  300  300  1    0  1  -360  360  
  21  44  0  0.035    0    300  300  300  1    0  1  -360  360  
  22  45  0  0.035    0    300  300  300  1    0  1  -360  360  
  22  46  0  0.035    0    300  300  300  1    0  1  -360  360  
  23  47  0  0.035    0    300  300  300  1    0  1  -360  360  
  23  48  0  0.035    0    300  300  300  1    0  1  -360  360  
  53  43  0  0.01806    0    360  360  360  1.000000015    0  1  -360  360  
  54  44  0  0.01806    0    360  360  360  1.000000015    0  1  -360  360  
  55  45  0  0.01806    0    360  360  360  1.000000015    0  1  -360  360  
  56  46  0  0.01806    0    360  360  360  1.000000015    0  1  -360  360  
  57  47  0  0.01806    0    360  360  360  1.000000015    0  1  -360  360  
  58  48  0  0.01806    0    360  360  360  1.000000015    0  1  -360  360  
  60  2  5e-05  0.0157    0    1000  1000  1000  1    0  1  -360  360  
  60  10  5e-05  -0.00158    0    1000  1000  1000  1    0  1  -360  360  
  60  24  0.00021  0.02668    0    360  360  360  1    0  1  -360  360  
  61  2  5e-05  0.0157    0    1000  1000  1000  1    0  1  -360  360  
  61  10  5e-05  -0.00158    0    1000  1000  1000  1    0  1  -360  360  
  61  25  0.00021  0.02668    0    360  360  360  1    0  1  -360  360  
  62  2  5e-05  0.0157    0    1000  1000  1000  1    0  1  -360  360  
  62  10  5e-05  -0.00158    0    1000  1000  1000  1    0  1  -360  360  
  62  26  0.00021  0.02668    0    360  360  360  1    0  1  -360  360  
  63  3  5e-05  0.0157    0    1000  1000  1000  1    0  1  -360  360  
  63  11  5e-05  -0.00158    0    1000  1000  1000  1    0  1  -360  360  
  63  27  0.00021  0.02668    0    360  360  360  1    0  1  -360  360  
  64  3  5e-05  0.0157    0    1000  1000  1000  1    0  1  -360  360  
  64  11  5e-05  -0.00158    0    1000  1000  1000  1    0  1  -360  360  
  64  28  0.00021  0.02668    0    360  360  360  1    0  1  -360  360  
  65  3  5e-05  0.0157    0    1000  1000  1000  1    0  1  -360  360  
  65  11  5e-05  -0.00158    0    1000  1000  1000  1    0  1  -360  360  
  65  29  0.00021  0.02668    0    360  360  360  1    0  1  -360  360  
  66  1  5e-05  0.0157    0    1000  1000  1000  1    0  1  -360  360  
  66  12  5e-05  -0.00158    0    1000  1000  1000  1    0  1  -360  360  
  66  30  0.00021  0.02668    0    360  360  360  1    0  1  -360  360  
  67  4  5e-05  0.0157    0    1000  1000  1000  1    0  1  -360  360  
  67  13  5e-05  -0.00158    0    1000  1000  1000  1    0  1  -360  360  
  67  31  0.00021  0.02668    0    360  360  360  1    0  1  -360  360  
  68  5  5e-05  0.0157    0    1000  1000  1000  1    0  1  -360  360  
  68  14  5e-05  -0.00158    0    1000  1000  1000  1    0  1  -360  360  
  68  32  0.00021  0.02668    0    360  360  360  1    0  1  -360  360  
  69  6  5e-05  0.0157    0    1000  1000  1000  1    0  1  -360  360  
  69  15  5e-05  -0.00158    0    1000  1000  1000  1    0  1  -360  360  
  69  33  0.00021  0.02668    0    360  360  360  1    0  1  -360  360  
  70  7  5e-05  0.0157    0    1000  1000  1000  1    0  1  -360  360  
  70  16  5e-05  -0.00158    0    1000  1000  1000  1    0  1  -360  360  
  70  34  0.00021  0.02668    0    360  360  360  1    0  1  -360  360  
  71  4  0.00028  0.03331    0    750  750  750  1    0  1  -360  360  
  72  4  0.00028  0.03331    0    750  750  750  1    0  1  -360  360  
  73  4  0.00028  0.03331    0    750  750  750  1    0  1  -360  360  
  74  5  0.00028  0.03331    0    750  750  750  1    0  1  -360  360  
  75  5  0.00028  0.03331    0    750  750  750  1    0  1  -360  360  
  76  5  0.00028  0.03331    0    750  750  750  1    0  1  -360  360  
  77  5  0.00028  0.03331    0    750  750  750  1    0  1  -360  360  
  78  35  0  0.02708    0    240  240  240  0.9999999965217392    0  1  -360  360  
  79  36  0  0.02708    0    240  240  240  0.9999999965217392    0  1  -360  360  
  80  37  0  0.02708    0    240  240  240  0.9999999965217392    0  1  -360  360  
  81  38  0  0.02708    0    240  240  240  0.9999999965217392    0  1  -360  360  
  82  39  0  0.02708    0    240  240  240  0.9999999965217392    0  1  -360  360  
  83  40  0  0.02708    0    240  240  240  0.9999999965217392    0  1  -360  360  
  84  41  0  0.02708    0    240  240  240  0.9999999965217392    0  1  -360  360  
  85  42  0  0.02708    0    240  240  240  0.9999999965217392    0  1  -360  360  
];
%% BD data
%% %1.  serial no 
%% %2.  converter node index 
%% %3.  valve node index 
%% %4.  DC BaseKv 
%% %5.  Phase shifting resistance(p.u. in DC side) 
%% %6.  Converter transformer ratio 
%% %7.  Flat wave reactor reactance(p.u.) 
%% %8.  DC line resistance(p.u.)  
%% %9.  DC line inductance(p.u.) 
mpc.BD = [
1   8   49   500   0.004042790426837807   0.9024747395736841   0.000116   0.002   0.000314148   ;
2   9   50   500   0.003630352641228322   0.9283638114416078   0.000116   0.002   0.000314148   ;
3   8   51   500   0.004042790426837807   0.9024747395736841   0.000116   0.002   0.00032   ;
4   9   52   500   0.003630352641228322   0.9283638114416078   0.000116   0.002   0.00032   ;
];
%% busmap data
%	busname  bus_no 
mpc.map = {
'B01525.00',1;
'B02525.00',2;
'B03525.00',3;
'B04525.00',4;
'B05525.00',5;
'B06525.00',6;
'B07525.00',7;
'B08525.00',8;
'B09525.00',9;
'B10230.00',10;
'B11230.00',11;
'B12230.00',12;
'B13230.00',13;
'B14230.00',14;
'B15230.00',15;
'B16230.00',16;
'B17230.00',17;
'B18230.00',18;
'B19230.00',19;
'B20230.00',20;
'B25230.00',21;
'B26230.00',22;
'B27230.00',23;
'B2937.00',24;
'B3037.00',25;
'B3137.00',26;
'B3237.00',27;
'B3337.00',28;
'B3437.00',29;
'B3537.00',30;
'B3637.00',31;
'B3737.00',32;
'B3837.00',33;
'B3937.00',34;
'B4037.00',35;
'B4137.00',36;
'B4237.00',37;
'B4337.00',38;
'B4437.00',39;
'B4537.00',40;
'B4637.00',41;
'B4737.00',42;
'B5637.00',43;
'B5737.00',44;
'B5837.00',45;
'B5937.00',46;
'B6037.00',47;
'B6137.00',48;
'DN01210.00',49;
'DN02199.00',50;
'DP01210.00',51;
'DP02199.00',52;
'PV03-010.40',53;
'PV03-020.40',54;
'PV03-030.40',55;
'PV03-040.40',56;
'PV03-050.40',57;
'PV03-060.40',58;
'RE-Bus525.00',59;
'T3-011.00',60;
'T3-021.00',61;
'T3-031.00',62;
'T3-041.00',63;
'T3-051.00',64;
'T3-061.00',65;
'T3-071.00',66;
'T3-081.00',67;
'T3-091.00',68;
'T3-101.00',69;
'T3-111.00',70;
'TP04-0120.00',71;
'TP04-0220.00',72;
'TP04-0320.00',73;
'TP05-0420.00',74;
'TP05-0520.00',75;
'TP05-0620.00',76;
'TP05-0720.00',77;
'WT02-010.69',78;
'WT02-020.69',79;
'WT02-030.69',80;
'WT02-040.69',81;
'WT02-050.69',82;
'WT02-060.69',83;
'WT02-070.69',84;
'WT02-080.69',85;
};
%% busmap data
%	busname  bus_no 
mpc.zonemap = {
'0',2;
'1S',1;
'ZL',3;
};
